21

C          5.42140      -11.25690        0.00000
C          5.42140      -12.75690        0.00000
C          6.72040      -13.50690        0.00000
C          8.01940      -12.75690        0.00000
C          8.01940      -11.25690        0.00000
C          6.72040      -10.50690        0.00000
N          9.44600      -13.22040        0.00000
C         10.32770      -12.00690        0.00000
C          9.44600      -10.79340        0.00000
C          9.90950       -9.36680        0.00000
C         11.37680       -9.05490        0.00000
C         12.84400       -8.74310        0.00000
H          4.52766      -10.74091        0.00000
H          4.52766      -13.27289        0.00000
H          6.72040      -14.53890        0.00000
H          6.72040       -9.47490        0.00000
H          9.75023      -14.15672        0.00000
H         11.35970      -12.00690        0.00000
H          9.19352       -8.57165        0.00000
H         10.24014       -8.34917        0.00000
H         13.81629       -8.53648        0.00000